41
Coordinates from ORCA-job mbihc_n E -1312.907298656772
  C           7.44257426024451      1.44377035153035      0.62041472321478
  N           6.37406136523319      0.48421991382714      0.77033938679707
  C           5.11451795840379      0.67997695031130      0.29600097082134
  S           4.71604316814781      2.07655238334204     -0.52372356137145
  N           4.29048241354165     -0.37619593302860      0.57726977345867
  N           2.97660146235045     -0.65042399291046      0.35557770532223
  C           2.19164201076947      0.13352695658711     -0.28618086312666
  C           0.79799328553679     -0.23513006122948     -0.47610922720108
  C          -0.11726679268169      0.53705867203158     -1.15434747684076
  N          -1.34449131571875     -0.07284237999970     -1.17494641382911
  C          -2.55368959188105      0.46596850856325     -1.74816669680853
  C          -3.57620688581711      0.92794692072938     -0.72540441314016
  C          -3.19177984628596      1.32242273230958      0.55832893916003
  C          -4.14307708086126      1.77371264815946      1.47162709472469
  C          -5.48828769211807      1.83576568174865      1.11251620768760
  C          -5.87943532452805      1.43976087281429     -0.16574899556185
  C          -4.92813300972352      0.98524498187717     -1.07664263237822
  C          -1.25017773629414     -1.26940225234080     -0.48738705428279
  C          -2.23850799227576     -2.22672546124228     -0.22552676790596
  C          -1.86061947199091     -3.34999629130130      0.49385103670014
  C          -0.53632227177822     -3.51679069901182      0.94652815742996
  C           0.43634837780966     -2.56221491886338      0.69169595567888
  C           0.08129689877092     -1.41365245648495     -0.03583386025056
  H           8.35271055227624      1.01781558935464      1.06275323501593
  H           7.20529950473355      2.39452857604468      1.12308435660179
  H           7.62699744313109      1.66807133427830     -0.44098852683386
  H           6.57083573365073     -0.35530647404871      1.29884911022988
  H           4.71272055454575     -1.14480616448388      1.08286170460882
  H           2.52899455875957      1.08767614435834     -0.70455085668040
  H           0.02682424061021      1.50320240499196     -1.63868320933873
  H          -2.26451272667771      1.31180597696502     -2.39163563539412
  H          -3.00701813475631     -0.28678222717361     -2.41413547345757
  H          -2.13959689766050      1.26601881648321      0.85074370552374
  H          -3.82921581067397      2.07516113849764      2.47401077853825
  H          -6.23303823505403      2.18669323598948      1.83101872819630
  H          -6.93304694193145      1.47712614563161     -0.45371194038335
  H          -5.24280617601013      0.66648719110538     -2.07540326346598
  H          -3.26902675384733     -2.08991178755006     -0.56105738332565
  H          -2.60565662901608     -4.11744088667609      0.71830891714429
  H          -0.27666411763727     -4.41430144211061      1.51351162943118
  H           1.46263364670390     -2.67859269907582      1.04153213529121
