35
Coordinates from ORCA-job ligand2 E -1697.699706842613
  O      -0.248400     -0.237879      3.228412
  C      -0.170543     -1.016425      2.279865
  C      -0.949938     -2.326000      2.303123
  S      -1.562791     -2.847479      0.661255
  C      -2.549655     -1.428499      0.218962
  C      -3.647486     -1.032853      0.989704
  C      -4.399940      0.085869      0.620367
  C      -4.058025      0.804859     -0.523322
  Cl     -4.984024      2.181787     -0.976750
  C      -2.973282      0.412215     -1.303877
  C      -2.222907     -0.707270     -0.935210
  N       0.631840     -0.856483      1.172743
  C       1.457194      0.235775      0.818297
  C       1.702591      1.320294      1.665566
  C       2.527214      2.362028      1.246549
  C       3.107251      2.323129     -0.018032
  C       2.864303      1.238321     -0.875111
  C       3.433583      1.177076     -2.154172
  C       3.170543      0.091014     -2.979280
  C       2.341827     -0.902864     -2.497779
  N       1.772110     -0.880834     -1.272741
  C       2.030896      0.176054     -0.463077
  H      -1.797112     -2.225890      2.988473
  H      -0.288661     -3.106985      2.691314
  H      -3.933534     -1.589103      1.878845
  H      -5.248873      0.388630      1.227603
  H      -2.703728      0.970597     -2.196186
  H      -1.374388     -1.000545     -1.550665
  H       0.553798     -1.554875      0.432195
  H       1.267761      1.376675      2.658472
  H       2.715274      3.203077      1.909682
  H       3.748349      3.144269     -0.330972
  H       4.082286      1.972992     -2.511631
  H       3.601678      0.023198     -3.971671
  H       2.104786     -1.773875     -3.102653
35
Coordinates from ORCA-job ligand2 E -1697.706358683581
  O      -0.210830     -0.274398      3.276711
  C      -0.149387     -1.052621      2.339263
  C      -0.951625     -2.350869      2.364015
  S      -1.563740     -2.910523      0.741039
  C      -2.459004     -1.455619      0.232179
  C      -3.600614     -1.027823      0.916920
  C      -4.284348      0.112223      0.499271
  C      -3.832828      0.817020     -0.616314
  Cl     -4.682701      2.232794     -1.137402
  C      -2.703184      0.392932     -1.314525
  C      -2.015507     -0.741405     -0.885636
  N       0.609295     -0.872370      1.225853
  C       1.407324      0.223229      0.869827
  C       1.692286      1.286000      1.712210
  C       2.509325      2.346179      1.267376
  C       3.038309      2.344605     -0.008609
  C       2.756855      1.270424     -0.885410
  C       3.263859      1.213812     -2.201515
  C       2.944643      0.138941     -3.007476
  C       2.118873     -0.866978     -2.485337
  N       1.624377     -0.852720     -1.257086
  C       1.932169      0.194143     -0.452775
  H      -1.792043     -2.224116      3.057684
  H      -0.304764     -3.149202      2.759707
  H      -3.972195     -1.581790      1.782452
  H      -5.172859      0.443762      1.040501
  H      -2.347896      0.949008     -2.184475
  H      -1.119388     -1.057982     -1.425045
  H       0.510851     -1.559150      0.478287
  H       1.291291      1.313503      2.723164
  H       2.725583      3.175929      1.943858
  H       3.670617      3.173746     -0.335957
  H       3.904100      2.013287     -2.583850
  H       3.323369      0.070996     -4.028728
  H       1.839785     -1.734967     -3.091881
35
Coordinates from ORCA-job ligand2 E -1697.707084714606
  O      -0.179735     -0.175871      3.191811
  C      -0.129331     -0.937182      2.244397
  C      -0.959812     -2.218410      2.241052
  S      -1.555155     -2.781456      0.618982
  C      -2.624331     -1.418890      0.191695
  C      -3.768088     -1.139949      0.946050
  C      -4.594853     -0.075516      0.602356
  C      -4.283153      0.699419     -0.514880
  Cl     -5.319261      2.028426     -0.950440
  C      -3.154941      0.424722     -1.286155
  C      -2.324206     -0.633231     -0.925758
  N       0.683977     -0.784198      1.175318
  C       1.530953      0.275896      0.858715
  C       1.828206      1.332107      1.690823
  C       2.713396      2.357031      1.259341
  C       3.295128      2.327734      0.017722
  C       3.006486      1.250825     -0.866741
  C       3.560285      1.138855     -2.170475
  C       3.219877      0.066573     -2.957492
  C       2.319857     -0.900417     -2.443347
  N       1.792771     -0.833781     -1.249854
  C       2.117322      0.216060     -0.453902
  H      -1.798755     -2.075879      2.935775
  H      -0.334481     -3.039380      2.632130
  H      -4.022579     -1.754917      1.814765
  H      -5.485173      0.144959      1.197060
  H      -2.916524      1.040189     -2.157648
  H      -1.423535     -0.833645     -1.513724
  H       0.605993     -1.478669      0.431277
  H       1.379848      1.379361      2.681168
  H       2.933696      3.184548      1.940018
  H       3.977133      3.123010     -0.297500
  H       4.251888      1.903900     -2.538058
  H       3.630472     -0.045686     -3.964649
  H       2.026625     -1.766538     -3.051535
35
Coordinates from ORCA-job ligand2 E -1697.707473085908
  O      -0.151387     -0.302029      3.343426
  C      -0.129107     -1.045487      2.378343
  C      -0.948849     -2.333843      2.385868
  S      -1.559323     -2.918097      0.781394
  C      -2.434281     -1.465971      0.223330
  C      -3.616825     -1.058184      0.849077
  C      -4.292745      0.074261      0.406631
  C      -3.788067      0.785708     -0.681806
  Cl     -4.635910      2.202168     -1.243040
  C      -2.620333      0.385410     -1.327453
  C      -1.943075     -0.741088     -0.866938
  N       0.617580     -0.846605      1.265468
  C       1.416173      0.241932      0.926683
  C       1.752580      1.284965      1.757792
  C       2.582077      2.338911      1.282732
  C       3.069302      2.354063      0.004736
  C       2.738572      1.290426     -0.885087
  C       3.191682      1.215767     -2.233871
  C       2.814470      0.156505     -3.015845
  C       1.974422     -0.844946     -2.456554
  N       1.544209     -0.810178     -1.225006
  C       1.908405      0.230696     -0.431603
  H      -1.772194     -2.192762      3.098980
  H      -0.314579     -3.151455      2.766855
  H      -4.016710     -1.625236      1.693840
  H      -5.211622      0.398799      0.898839
  H      -2.236414      0.953914     -2.176835
  H      -1.011293     -1.045367     -1.350701
  H       0.516789     -1.526979      0.509978
  H       1.374800      1.294715      2.777544
  H       2.832892      3.153512      1.967336
  H       3.708129      3.167868     -0.346773
  H       3.836404      2.005594     -2.629171
  H       3.146307      0.072529     -4.052748
  H       1.657917     -1.699515     -3.067126
35
Coordinates from ORCA-job ligand2 E -1697.707898006298
  O      -0.140057     -0.250295      3.291123
  C      -0.099608     -1.017485      2.343510
  C      -0.956260     -2.281074      2.347922
  S      -1.554547     -2.856463      0.733592
  C      -2.513657     -1.441975      0.220344
  C      -3.700571     -1.101427      0.877851
  C      -4.441244      0.003195      0.465486
  C      -3.996690      0.754121     -0.622426
  Cl     -4.921379      2.133050     -1.142728
  C      -2.825093      0.419951     -1.297888
  C      -2.082804     -0.678693     -0.868965
  N       0.661401     -0.837381      1.232806
  C       1.476371      0.244076      0.896532
  C       1.797061      1.293481      1.733056
  C       2.637655      2.338670      1.273569
  C       3.153605      2.338263      0.001514
  C       2.840647      1.269905     -0.883641
  C       3.328925      1.190958     -2.215394
  C       2.974299      0.126390     -3.006887
  C       2.124624     -0.868664     -2.467023
  N       1.656468     -0.828747     -1.239352
  C       1.998574      0.217146     -0.443341
  H      -1.791251     -2.111067      3.040110
  H      -0.352762     -3.109328      2.752487
  H      -4.055201     -1.699506      1.720905
  H      -5.363899      0.274364      0.981791
  H      -2.487076      1.017751     -2.146270
  H      -1.150705     -0.931566     -1.380002
  H       0.562727     -1.519511      0.479480
  H       1.398268      1.315018      2.745228
  H       2.875697      3.157554      1.956805
  H       3.802752      3.147516     -0.341077
  H       3.983628      1.978922     -2.597114
  H       3.334184      0.039079     -4.033591
  H       1.825914     -1.726230     -3.080113
35
Coordinates from ORCA-job ligand2 E -1697.708015023324
  O      -0.122502     -0.217734      3.278752
  C      -0.110061     -0.970224      2.319110
  C      -0.954467     -2.241372      2.334290
  S      -1.550594     -2.829834      0.724981
  C      -2.547628     -1.437617      0.224150
  C      -3.768772     -1.169902      0.851686
  C      -4.541667     -0.083028      0.452336
  C      -4.092556      0.724379     -0.592421
  Cl     -5.057303      2.081905     -1.096162
  C      -2.885374      0.464476     -1.237501
  C      -2.111785     -0.617687     -0.821399
  N       0.658564     -0.801488      1.212922
  C       1.494157      0.265169      0.881481
  C       1.828343      1.310795      1.717677
  C       2.694577      2.336865      1.262642
  C       3.222995      2.321146     -0.004294
  C       2.895761      1.256515     -0.888810
  C       3.396559      1.161498     -2.214412
  C       3.027101      0.101427     -3.005213
  C       2.149060     -0.871690     -2.470765
  N       1.669114     -0.816760     -1.249076
  C       2.027030      0.224014     -0.453439
  H      -1.788192     -2.074636      3.029074
  H      -0.342155     -3.063029      2.740168
  H      -4.124301     -1.812514      1.661235
  H      -5.492008      0.131611      0.944940
  H      -2.545371      1.106814     -2.052170
  H      -1.152401     -0.813824     -1.307408
  H       0.558014     -1.484467      0.460827
  H       1.421512      1.342534      2.726378
  H       2.943008      3.152488      1.946379
  H       3.893148      3.114515     -0.344486
  H       4.073029      1.933993     -2.590655
  H       3.395838      0.000563     -4.027835
  H       1.839322     -1.724904     -3.084687
35
Coordinates from ORCA-job ligand2 E -1697.708093345202
  O      -0.109491     -0.213173      3.298627
  C      -0.099302     -0.965577      2.339177
  C      -0.957121     -2.227581      2.348496
  S      -1.532796     -2.825383      0.736141
  C      -2.530303     -1.438962      0.219714
  C      -3.768578     -1.191879      0.821388
  C      -4.545503     -0.111002      0.414763
  C      -4.081094      0.711568     -0.611381
  Cl     -5.050945      2.063025     -1.124630
  C      -2.856637      0.472855     -1.231681
  C      -2.080482     -0.604924     -0.809004
  N       0.660398     -0.793721      1.228348
  C       1.497990      0.269600      0.894709
  C       1.850334      1.309262      1.729625
  C       2.721329      2.329435      1.267507
  C       3.236392      2.314170     -0.003724
  C       2.888974      1.255845     -0.889372
  C       3.373765      1.159090     -2.221628
  C       2.983116      0.106327     -3.010449
  C       2.098335     -0.858775     -2.468969
  N       1.634586     -0.802333     -1.243455
  C       2.014977      0.230875     -0.447937
  H      -1.798806     -2.046498      3.030514
  H      -0.360081     -3.052854      2.769890
  H      -4.132288     -1.846806      1.617350
  H      -5.509716      0.088176      0.886386
  H      -2.507524      1.127239     -2.032759
  H      -1.108654     -0.787308     -1.275849
  H       0.554441     -1.474749      0.474940
  H       1.454660      1.338967      2.742628
  H       2.983850      3.139836      1.952335
  H       3.910714      3.101230     -0.350233
  H       4.054671      1.926086     -2.601191
  H       3.338236      0.003082     -4.037687
  H       1.772550     -1.705142     -3.084292
35
Coordinates from ORCA-job ligand2 E -1697.708116357014
  O      -0.095294     -0.206471      3.308527
  C      -0.094183     -0.956373      2.346915
  C      -0.960644     -2.213058      2.357483
  S      -1.529593     -2.822821      0.747062
  C      -2.529540     -1.442403      0.218188
  C      -3.771259     -1.200626      0.815064
  C      -4.553658     -0.126055      0.402227
  C      -4.090394      0.695377     -0.625344
  Cl     -5.065820      2.039987     -1.145935
  C      -2.863283      0.461021     -1.242118
  C      -2.082352     -0.611243     -0.814157
  N       0.660146     -0.784540      1.232576
  C       1.505203      0.273225      0.900014
  C       1.871038      1.305572      1.738333
  C       2.748932      2.319973      1.276951
  C       3.257970      2.306051      0.003213
  C       2.896114      1.255663     -0.886078
  C       3.373635      1.161638     -2.221146
  C       2.968531      0.117386     -3.013994
  C       2.076367     -0.841414     -2.473611
  N       1.619047     -0.787359     -1.245349
  C       2.014265      0.237285     -0.445627
  H      -1.806596     -2.021018      3.031282
  H      -0.372734     -3.038059      2.791923
  H      -4.132121     -1.855798      1.612037
  H      -5.520899      0.068853      0.869271
  H      -2.516661      1.114536     -2.044874
  H      -1.110182     -0.792465     -1.280744
  H       0.547771     -1.462655      0.477238
  H       1.480437      1.333417      2.753465
  H       3.021480      3.124432      1.964801
  H       3.938270      3.087737     -0.343608
  H       4.060344      1.924382     -2.598666
  H       3.317021      0.015573     -4.043579
  H       1.738638     -1.679752     -3.093440
35
Coordinates from ORCA-job ligand2 E -1697.708131224076
  O      -0.063996     -0.188568      3.317908
  C      -0.081847     -0.932974      2.351902
  C      -0.966232     -2.177556      2.365870
  S      -1.526221     -2.806492      0.759691
  C      -2.543859     -1.442610      0.219792
  C      -3.804305     -1.240170      0.792263
  C      -4.605389     -0.180778      0.375818
  C      -4.140358      0.665203     -0.630789
  Cl     -5.136787      1.992625     -1.155191
  C      -2.894921      0.469446     -1.223897
  C      -2.096053     -0.588365     -0.793084
  N       0.663388     -0.763836      1.231108
  C       1.524523      0.281662      0.899455
  C       1.910666      1.303741      1.741799
  C       2.802897      2.305872      1.282349
  C       3.306805      2.289629      0.006334
  C       2.924658      1.249692     -0.886448
  C       3.396648      1.155636     -2.223262
  C       2.972449      0.122235     -3.020563
  C       2.066976     -0.824575     -2.482258
  N       1.613829     -0.770183     -1.251854
  C       2.027600      0.244048     -0.447871
  H      -1.819015     -1.964277      3.024610
  H      -0.396134     -3.002261      2.823636
  H      -4.163370     -1.916258      1.572298
  H      -5.587802     -0.017046      0.822525
  H      -2.548755      1.142521     -2.010398
  H      -1.111086     -0.740409     -1.242712
  H       0.538713     -1.437643      0.473728
  H       1.524100      1.332775      2.758496
  H       3.090099      3.102268      1.973488
  H       3.998788      3.060882     -0.340542
  H       4.094411      1.909849     -2.597402
  H       3.315422      0.018991     -4.051750
  H       1.714155     -1.653073     -3.106750
35
Coordinates from ORCA-job ligand2 E -1697.708138837450
  O      -0.053313     -0.199233      3.328925
  C      -0.080856     -0.936969      2.358092
  C      -0.968427     -2.179128      2.372892
  S      -1.528347     -2.814140      0.769155
  C      -2.538221     -1.448377      0.218805
  C      -3.790490     -1.224913      0.801693
  C      -4.585864     -0.164152      0.377789
  C      -4.123511      0.661930     -0.646456
  Cl     -5.112537      1.990931     -1.180961
  C      -2.886458      0.444841     -1.249566
  C      -2.093184     -0.613972     -0.811347
  N       0.658035     -0.764070      1.233959
  C       1.521692      0.279980      0.903720
  C       1.912643      1.297581      1.749214
  C       2.805275      2.300234      1.291436
  C       3.304195      2.289224      0.013489
  C       2.917211      1.253918     -0.882639
  C       3.383547      1.166138     -2.221918
  C       2.955051      0.136983     -3.022321
  C       2.051266     -0.811887     -2.484565
  N       1.603191     -0.763264     -1.252261
  C       2.020678      0.246911     -0.445196
  H      -1.822893     -1.961333      3.028042
  H      -0.401659     -3.002720      2.836847
  H      -4.147059     -1.885856      1.595774
  H      -5.561649      0.016142      0.832722
  H      -2.542340      1.102545     -2.049950
  H      -1.114856     -0.782328     -1.269578
  H       0.528974     -1.435157      0.475015
  H       1.529373      1.322962      2.767209
  H       3.096320      3.092941      1.985247
  H       3.995697      3.061359     -0.332556
  H       4.080018      1.921888     -2.595496
  H       3.293276      0.038337     -4.055582
  H       1.695219     -1.637346     -3.111333
35
Coordinates from ORCA-job ligand2 E -1697.708142949212
  O      -0.048408     -0.200644      3.331147
  C      -0.078671     -0.935737      2.358405
  C      -0.968259     -2.176210      2.372029
  S      -1.526511     -2.810676      0.767669
  C      -2.540251     -1.447123      0.219171
  C      -3.793702     -1.227370      0.800906
  C      -4.591546     -0.168695      0.376612
  C      -4.130901      0.658973     -0.647165
  Cl     -5.123765      1.984607     -1.182961
  C      -2.892552      0.445649     -1.248893
  C      -2.096581     -0.610879     -0.809985
  N       0.658316     -0.761623      1.233334
  C       1.523690      0.281151      0.903587
  C       1.916018      1.297950      1.749333
  C       2.810395      2.299352      1.291973
  C       3.309319      2.287924      0.014050
  C       2.920734      1.253468     -0.882381
  C       3.386870      1.165223     -2.221728
  C       2.957050      0.136652     -3.022165
  C       2.052195     -0.811315     -2.484426
  N       1.604171     -0.762165     -1.252246
  C       2.022885      0.247378     -0.445174
  H      -1.823727     -1.957051      3.025434
  H      -0.403372     -3.000277      2.837489
  H      -4.149517     -1.889411      1.594445
  H      -5.568071      0.008803      0.831133
  H      -2.549418      1.104297     -2.048980
  H      -1.116879     -0.775421     -1.266761
  H       0.528070     -1.432380      0.474430
  H       1.533024      1.323603      2.767391
  H       3.103192      3.091225      1.986018
  H       4.001890      3.059392     -0.331428
  H       4.084135      1.920063     -2.595725
  H       3.295031      0.038017     -4.055539
  H       1.695142     -1.636750     -3.110702
35
Coordinates from ORCA-job ligand2 E -1697.708145459123
  O      -0.035350     -0.203273      3.337827
  C      -0.073875     -0.932624      2.361005
  C      -0.968541     -2.169416      2.373850
  S      -1.524087     -2.806076      0.769629
  C      -2.543186     -1.446860      0.220604
  C      -3.798868     -1.231800      0.799228
  C      -4.600309     -0.177277      0.371646
  C      -4.141557      0.650956     -0.652578
  Cl     -5.139870      1.970502     -1.193232
  C      -2.900683      0.442625     -1.250715
  C      -2.100797     -0.609509     -0.808160
  N       0.656770     -0.755355      1.232479
  C       1.526746      0.283877      0.903880
  C       1.924501      1.297088      1.751278
  C       2.823070      2.295316      1.295033
  C       3.320566      2.284096      0.016536
  C       2.926369      1.253219     -0.881530
  C       3.390765      1.165254     -2.221541
  C       2.956065      0.139776     -3.023286
  C       2.048034     -0.805647     -2.486293
  N       1.601197     -0.756451     -1.253655
  C       2.024525      0.250174     -0.445409
  H      -1.825816     -1.945699      3.023356
  H      -0.408311     -2.993850      2.844250
  H      -4.154079     -1.894087      1.592857
  H      -5.578456     -0.003569      0.824153
  H      -2.558427      1.101415     -2.051074
  H      -1.118710     -0.768895     -1.261666
  H       0.522012     -1.424489      0.472910
  H       1.542954      1.322423      2.769907
  H       3.120756      3.084350      1.990212
  H       4.016203      3.053383     -0.327620
  H       4.090685      1.917619     -2.595539
  H       3.292634      0.041958     -4.057196
  H       1.687067     -1.629156     -3.112850
35
Coordinates from ORCA-job ligand2 E -1697.708145662656
  O      -0.032225     -0.203823      3.339642
  C      -0.072954     -0.931486      2.361644
  C      -0.968649     -2.167643      2.374129
  S      -1.523517     -2.805065      0.770004
  C      -2.544142     -1.447292      0.220353
  C      -3.798710     -1.231148      0.800885
  C      -4.601340     -0.178005      0.372149
  C      -4.144992      0.647755     -0.655143
  Cl     -5.145063      1.965388     -1.197243
  C      -2.905239      0.438347     -1.255221
  C      -2.104111     -0.612373     -0.811474
  N       0.655831     -0.752815      1.232179
  C       1.527626      0.285136      0.904512
  C       1.927429      1.296786      1.752768
  C       2.827813      2.293718      1.297175
  C       3.325009      2.282779      0.018578
  C       2.928695      1.253475     -0.880385
  C       3.392570      1.165727     -2.220605
  C       2.955683      0.141819     -3.023137
  C       2.045874     -0.802315     -2.486796
  N       1.599524     -0.753263     -1.254030
  C       2.025072      0.251762     -0.444997
  H      -1.826189     -1.943091      3.022998
  H      -0.409339     -2.992136      2.845480
  H      -4.152331     -1.891336      1.596973
  H      -5.578665     -0.003555      0.826148
  H      -2.564742      1.095091     -2.058007
  H      -1.122915     -0.772567     -1.266605
  H       0.519850     -1.421235      0.472177
  H       1.546181      1.321818      2.771508
  H       3.127112      3.081646      1.992923
  H       4.022004      3.051138     -0.324909
  H       4.093868      1.916996     -2.594255
  H       3.291905      0.044356     -4.057203
  H       1.683075     -1.624587     -3.113917
