! wB97X-D3 def2-SVP TightSCF Opt CPCM(methanol)

* xyz 0 1
O -0.248400 -0.237879 3.228412
C -0.170543 -1.016425 2.279865
C -0.949938 -2.326000 2.303123
S -1.562791 -2.847479 0.661255
C -2.549655 -1.428499 0.218962
C -3.647486 -1.032853 0.989704
C -4.399940 0.085869 0.620367
C -4.058025 0.804859 -0.523322
Cl -4.984024 2.181787 -0.976750
C -2.973282 0.412215 -1.303877
C -2.222907 -0.707270 -0.935210
N 0.631840 -0.856483 1.172743
C 1.457194 0.235775 0.818297
C 1.702591 1.320294 1.665566
C 2.527214 2.362028 1.246549
C 3.107251 2.323129 -0.018032
C 2.864303 1.238321 -0.875111
C 3.433583 1.177076 -2.154172
C 3.170543 0.091014 -2.979280
C 2.341827 -0.902864 -2.497779
N 1.772110 -0.880834 -1.272741
C 2.030896 0.176054 -0.463077
H -1.797112 -2.225890 2.988473
H -0.288661 -3.106985 2.691314
H -3.933534 -1.589103 1.878845
H -5.248873 0.388630 1.227603
H -2.703728 0.970597 -2.196186
H -1.374388 -1.000545 -1.550665
H 0.553798 -1.554875 0.432195
H 1.267761 1.376675 2.658472
H 2.715274 3.203077 1.909682
H 3.748349 3.144269 -0.330972
H 4.082286 1.972992 -2.511631
H 3.601678 0.023198 -3.971671
H 2.104786 -1.773875 -3.102653
*