38
Coordinates from ORCA-job ligand3 E -1277.534131492952
  O          -0.54438547221179     -2.16555137160249      2.70554888021928
  C          -0.48343699437896     -0.95795909003525      2.54343696540309
  C           0.35749551041784     -0.10782834802459      3.49186637195912
  S           0.97154745208026      1.47531678605909      2.85912995838740
  C           2.03189924235883      0.91404975717655      1.53635926163107
  C           1.68404872204034      1.17226742051930      0.20733030927842
  C           2.52139816692239      0.75692648064146     -0.82704340046818
  C           3.71239567180453      0.06923518345985     -0.56438545510541
  C           4.59365742532643     -0.41350184054638     -1.68648869981006
  C           4.04966155073304     -0.17906028802937      0.77367157579510
  C           3.22777665372679      0.24376637190529      1.81499959863783
  N          -1.14249481205716     -0.27309572012650      1.57581396430132
  C          -1.93593374726052     -0.76424249235394      0.53995531394132
  C          -2.30669928271927     -2.08202189142780      0.36921021430946
  C          -3.11446466941734     -2.45749280797411     -0.73460764218623
  C          -3.54921382470704     -1.53637128016360     -1.65355889775334
  C          -3.18330979586692     -0.16945558111766     -1.50450086467089
  C          -3.58512217421544      0.84953036361174     -2.40970371601483
  C          -3.18347039301649      2.14390181677063     -2.19425326767185
  C          -2.37325496225134      2.42642758052631     -1.06696779733331
  N          -1.98477905531956      1.51120170203906     -0.21112613384800
  C          -2.37441016714821      0.22483975895984     -0.40888224201905
  H          -0.26122894002203      0.14018844669988      4.36968237374514
  H           1.18499677046923     -0.73822919250380      3.84497029430014
  H           0.74870411312269      1.69102627137942     -0.02001482044127
  H           2.23794932220776      0.96938279019444     -1.86210996879222
  H           4.50018332245205      0.22743146317088     -2.57454761181899
  H           5.65000027398504     -0.43939239871938     -1.38321322613029
  H           4.31175427087019     -1.43614560576227     -1.98575064107468
  H           4.97981218357476     -0.70596512631974      1.00599278153371
  H           3.51625221649088      0.05145481415462      2.85214882473220
  H          -0.99836964294041      0.73691671314648      1.53248280932864
  H          -1.97160130928936     -2.82834473128715      1.08634152173492
  H          -3.39061223492950     -3.50939324949871     -0.84346375901172
  H          -4.17219291766995     -1.83178949231614     -2.50143596968735
  H          -4.20975533088784      0.58684098002949     -3.26802947763892
  H          -3.47299838819107      2.95106001033296     -2.86992142343903
  H          -2.04179475408282      3.45407179703161     -0.87926700432254
